  432
Ti  O 
 Ti        0.00000000       3.86673702      -8.95582903
 O         0.00000000       2.02692494      -9.68756940
 O         1.89210000       4.23717521      -8.80849628
 Ti        0.00000000       0.95722698      -8.07675591
 Ti        0.00000000       2.46821749      -5.43953656
 O         0.00000000       2.79703907      -7.34501555
 O         0.00000000       0.62840540      -6.17127693
 Ti        1.89210000       4.67846776      -4.56046344
 O         0.00000000       4.30802958      -4.70779619
 O         1.89210000       4.34964618      -2.65498445
 Ti        1.89210000      -1.25302329      -8.95582903
 O         0.00000000      -0.88258510      -8.80849628
 O         1.89210000      -3.09283538      -9.68756940
 O         1.89210000       0.58678880      -8.22408866
 O         1.89210000       2.83865568      -5.29220381
 Ti        0.00000000      -0.44129255      -4.56046344
 Ti        0.00000000       1.06969795      -1.92324409
 O         0.00000000       1.39851953      -3.82872307
 O         0.00000000      -0.77011413      -2.65498445
 Ti        1.89210000       3.27994823      -1.04417097
 O         0.00000000       2.90951004      -1.19150372
 O         1.89210000       5.11976032      -0.31243060
 Ti        1.89210000      16.31650793      -8.07675591
 Ti        1.89210000      -2.65154283      -5.43953656
 O         0.00000000      15.94606974      -8.22408866
 O         1.89210000      -2.32272125      -7.34501555
 O         0.00000000      -2.28110464      -5.29220381
 O         1.89210000      15.98768635      -6.17127693
 O         1.89210000      -0.81173074      -4.70779619
 O         1.89210000       1.44013614      -1.77591134
 Ti        0.00000000      -1.83981209      -1.04417097
 O         0.00000000       0.00000000      -0.31243060
 Ti        1.89210000      -4.05006236      -1.92324409
 O         1.89210000      -3.72124078      -3.82872307
 O         0.00000000      -3.67962418      -1.77591134
 O         1.89210000      -2.21025028      -1.19150372
 Ti        0.00000000      14.10625765      -8.95582903
 O         0.00000000      12.26644557      -9.68756940
 O         1.89210000      14.47669584      -8.80849628
 Ti        0.00000000      11.19674761      -8.07675591
 Ti        0.00000000      12.70773812      -5.43953656
 O         0.00000000      13.03655970      -7.34501555
 O         0.00000000      10.86792603      -6.17127693
 Ti        1.89210000      14.91798839      -4.56046344
 O         0.00000000      14.54755021      -4.70779619
 O         1.89210000      14.58916681      -2.65498445
 Ti        1.89210000       8.98649734      -8.95582903
 O         0.00000000       9.35693553      -8.80849628
 O         1.89210000       7.14668525      -9.68756940
 O         1.89210000      10.82630943      -8.22408866
 O         1.89210000      13.07817631      -5.29220381
 Ti        0.00000000       9.79822808      -4.56046344
 Ti        0.00000000      11.30921858      -1.92324409
 O         0.00000000      11.63804016      -3.82872307
 O         0.00000000       9.46940650      -2.65498445
 Ti        1.89210000      13.51946886      -1.04417097
 O         0.00000000      13.14903067      -1.19150372
 O         1.89210000      15.35928095      -0.31243060
 Ti        1.89210000       6.07698730      -8.07675591
 Ti        1.89210000       7.58797780      -5.43953656
 O         0.00000000       5.70654911      -8.22408866
 O         1.89210000       7.91679938      -7.34501555
 O         0.00000000       7.95841599      -5.29220381
 O         1.89210000       5.74816572      -6.17127693
 O         1.89210000       9.42778989      -4.70779619
 O         1.89210000      11.67965677      -1.77591134
 Ti        0.00000000       8.39970854      -1.04417097
 O         0.00000000      10.23952063      -0.31243060
 Ti        1.89210000       6.18945827      -1.92324409
 O         1.89210000       6.51827985      -3.82872307
 O         0.00000000       6.55989645      -1.77591134
 O         1.89210000       8.02927035      -1.19150372
 Ti        3.78420000       3.86673702      -8.95582903
 O         3.78420000       2.02692494      -9.68756940
 O         5.67630000       4.23717521      -8.80849628
 Ti        3.78420000       0.95722698      -8.07675591
 Ti        3.78420000       2.46821749      -5.43953656
 O         3.78420000       2.79703907      -7.34501555
 O         3.78420000       0.62840540      -6.17127693
 Ti        5.67630000       4.67846776      -4.56046344
 O         3.78420000       4.30802958      -4.70779619
 O         5.67630000       4.34964618      -2.65498445
 Ti        5.67630000      -1.25302329      -8.95582903
 O         3.78420000      -0.88258510      -8.80849628
 O         5.67630000      -3.09283538      -9.68756940
 O         5.67630000       0.58678880      -8.22408866
 O         5.67630000       2.83865568      -5.29220381
 Ti        3.78420000      -0.44129255      -4.56046344
 Ti        3.78420000       1.06969795      -1.92324409
 O         3.78420000       1.39851953      -3.82872307
 O         3.78420000      -0.77011413      -2.65498445
 Ti        5.67630000       3.27994823      -1.04417097
 O         3.78420000       2.90951004      -1.19150372
 O         5.67630000       5.11976032      -0.31243060
 Ti        5.67630000      16.31650793      -8.07675591
 Ti        5.67630000      -2.65154283      -5.43953656
 O         3.78420000      15.94606974      -8.22408866
 O         5.67630000      -2.32272125      -7.34501555
 O         3.78420000      -2.28110464      -5.29220381
 O         5.67630000      15.98768635      -6.17127693
 O         5.67630000      -0.81173074      -4.70779619
 O         5.67630000       1.44013614      -1.77591134
 Ti        3.78420000      -1.83981209      -1.04417097
 O         3.78420000       0.00000000      -0.31243060
 Ti        5.67630000      -4.05006236      -1.92324409
 O         5.67630000      -3.72124078      -3.82872307
 O         3.78420000      -3.67962418      -1.77591134
 O         5.67630000      -2.21025028      -1.19150372
 Ti        3.78420000      14.10625765      -8.95582903
 O         3.78420000      12.26644557      -9.68756940
 O         5.67630000      14.47669584      -8.80849628
 Ti        3.78420000      11.19674761      -8.07675591
 Ti        3.78420000      12.70773812      -5.43953656
 O         3.78420000      13.03655970      -7.34501555
 O         3.78420000      10.86792603      -6.17127693
 Ti        5.67630000      14.91798839      -4.56046344
 O         3.78420000      14.54755021      -4.70779619
 O         5.67630000      14.58916681      -2.65498445
 Ti        5.67630000       8.98649734      -8.95582903
 O         3.78420000       9.35693553      -8.80849628
 O         5.67630000       7.14668525      -9.68756940
 O         5.67630000      10.82630943      -8.22408866
 O         5.67630000      13.07817631      -5.29220381
 Ti        3.78420000       9.79822808      -4.56046344
 Ti        3.78420000      11.30921858      -1.92324409
 O         3.78420000      11.63804016      -3.82872307
 O         3.78420000       9.46940650      -2.65498445
 Ti        5.67630000      13.51946886      -1.04417097
 O         3.78420000      13.14903067      -1.19150372
 O         5.67630000      15.35928095      -0.31243060
 Ti        5.67630000       6.07698730      -8.07675591
 Ti        5.67630000       7.58797780      -5.43953656
 O         3.78420000       5.70654911      -8.22408866
 O         5.67630000       7.91679938      -7.34501555
 O         3.78420000       7.95841599      -5.29220381
 O         5.67630000       5.74816572      -6.17127693
 O         5.67630000       9.42778989      -4.70779619
 O         5.67630000      11.67965677      -1.77591134
 Ti        3.78420000       8.39970854      -1.04417097
 O         3.78420000      10.23952063      -0.31243060
 Ti        5.67630000       6.18945827      -1.92324409
 O         5.67630000       6.51827985      -3.82872307
 O         3.78420000       6.55989645      -1.77591134
 O         5.67630000       8.02927035      -1.19150372
 Ti        7.56840000       3.86673702      -8.95582903
 O         7.56840000       2.02692494      -9.68756940
 O         9.46050000       4.23717521      -8.80849628
 Ti        7.56840000       0.95722698      -8.07675591
 Ti        7.56840000       2.46821749      -5.43953656
 O         7.56840000       2.79703907      -7.34501555
 O         7.56840000       0.62840540      -6.17127693
 Ti        9.46050000       4.67846776      -4.56046344
 O         7.56840000       4.30802958      -4.70779619
 O         9.46050000       4.34964618      -2.65498445
 Ti        9.46050000      -1.25302329      -8.95582903
 O         7.56840000      -0.88258510      -8.80849628
 O         9.46050000      -3.09283538      -9.68756940
 O         9.46050000       0.58678880      -8.22408866
 O         9.46050000       2.83865568      -5.29220381
 Ti        7.56840000      -0.44129255      -4.56046344
 Ti        7.56840000       1.06969795      -1.92324409
 O         7.56840000       1.39851953      -3.82872307
 O         7.56840000      -0.77011413      -2.65498445
 Ti        9.46050000       3.27994823      -1.04417097
 O         7.56840000       2.90951004      -1.19150372
 O         9.46050000       5.11976032      -0.31243060
 Ti        9.46050000      16.31650793      -8.07675591
 Ti        9.46050000      -2.65154283      -5.43953656
 O         7.56840000      15.94606974      -8.22408866
 O         9.46050000      -2.32272125      -7.34501555
 O         7.56840000      -2.28110464      -5.29220381
 O         9.46050000      15.98768635      -6.17127693
 O         9.46050000      -0.81173074      -4.70779619
 O         9.46050000       1.44013614      -1.77591134
 Ti        7.56840000      -1.83981209      -1.04417097
 O         7.56840000       0.00000000      -0.31243060
 Ti        9.46050000      -4.05006236      -1.92324409
 O         9.46050000      -3.72124078      -3.82872307
 O         7.56840000      -3.67962418      -1.77591134
 O         9.46050000      -2.21025028      -1.19150372
 Ti        7.56840000      14.10625765      -8.95582903
 O         7.56840000      12.26644557      -9.68756940
 O         9.46050000      14.47669584      -8.80849628
 Ti        7.56840000      11.19674761      -8.07675591
 Ti        7.56840000      12.70773812      -5.43953656
 O         7.56840000      13.03655970      -7.34501555
 O         7.56840000      10.86792603      -6.17127693
 Ti        9.46050000      14.91798839      -4.56046344
 O         7.56840000      14.54755021      -4.70779619
 O         9.46050000      14.58916681      -2.65498445
 Ti        9.46050000       8.98649734      -8.95582903
 O         7.56840000       9.35693553      -8.80849628
 O         9.46050000       7.14668525      -9.68756940
 O         9.46050000      10.82630943      -8.22408866
 O         9.46050000      13.07817631      -5.29220381
 Ti        7.56840000       9.79822808      -4.56046344
 Ti        7.56840000      11.30921858      -1.92324409
 O         7.56840000      11.63804016      -3.82872307
 O         7.56840000       9.46940650      -2.65498445
 Ti        9.46050000      13.51946886      -1.04417097
 O         7.56840000      13.14903067      -1.19150372
 O         9.46050000      15.35928095      -0.31243060
 Ti        9.46050000       6.07698730      -8.07675591
 Ti        9.46050000       7.58797780      -5.43953656
 O         7.56840000       5.70654911      -8.22408866
 O         9.46050000       7.91679938      -7.34501555
 O         7.56840000       7.95841599      -5.29220381
 O         9.46050000       5.74816572      -6.17127693
 O         9.46050000       9.42778989      -4.70779619
 O         9.46050000      11.67965677      -1.77591134
 Ti        7.56840000       8.39970854      -1.04417097
 O         7.56840000      10.23952063      -0.31243060
 Ti        9.46050000       6.18945827      -1.92324409
 O         9.46050000       6.51827985      -3.82872307
 O         7.56840000       6.55989645      -1.77591134
 O         9.46050000       8.02927035      -1.19150372
 Ti       11.35260000       3.86673702      -8.95582903
 O        11.35260000       2.02692494      -9.68756940
 O        13.24470000       4.23717521      -8.80849628
 Ti       11.35260000       0.95722698      -8.07675591
 Ti       11.35260000       2.46821749      -5.43953656
 O        11.35260000       2.79703907      -7.34501555
 O        11.35260000       0.62840540      -6.17127693
 Ti       13.24470000       4.67846776      -4.56046344
 O        11.35260000       4.30802958      -4.70779619
 O        13.24470000       4.34964618      -2.65498445
 Ti       13.24470000      -1.25302329      -8.95582903
 O        11.35260000      -0.88258510      -8.80849628
 O        13.24470000      -3.09283538      -9.68756940
 O        13.24470000       0.58678880      -8.22408866
 O        13.24470000       2.83865568      -5.29220381
 Ti       11.35260000      -0.44129255      -4.56046344
 Ti       11.35260000       1.06969795      -1.92324409
 O        11.35260000       1.39851953      -3.82872307
 O        11.35260000      -0.77011413      -2.65498445
 Ti       13.24470000       3.27994823      -1.04417097
 O        11.35260000       2.90951004      -1.19150372
 O        13.24470000       5.11976032      -0.31243060
 Ti       13.24470000      16.31650793      -8.07675591
 Ti       13.24470000      -2.65154283      -5.43953656
 O        11.35260000      15.94606974      -8.22408866
 O        13.24470000      -2.32272125      -7.34501555
 O        11.35260000      -2.28110464      -5.29220381
 O        13.24470000      15.98768635      -6.17127693
 O        13.24470000      -0.81173074      -4.70779619
 O        13.24470000       1.44013614      -1.77591134
 Ti       11.35260000      -1.83981209      -1.04417097
 O        11.35260000       0.00000000      -0.31243060
 Ti       13.24470000      -4.05006236      -1.92324409
 O        13.24470000      -3.72124078      -3.82872307
 O        11.35260000      -3.67962418      -1.77591134
 O        13.24470000      -2.21025028      -1.19150372
 Ti       11.35260000      14.10625765      -8.95582903
 O        11.35260000      12.26644557      -9.68756940
 O        13.24470000      14.47669584      -8.80849628
 Ti       11.35260000      11.19674761      -8.07675591
 Ti       11.35260000      12.70773812      -5.43953656
 O        11.35260000      13.03655970      -7.34501555
 O        11.35260000      10.86792603      -6.17127693
 Ti       13.24470000      14.91798839      -4.56046344
 O        11.35260000      14.54755021      -4.70779619
 O        13.24470000      14.58916681      -2.65498445
 Ti       13.24470000       8.98649734      -8.95582903
 O        11.35260000       9.35693553      -8.80849628
 O        13.24470000       7.14668525      -9.68756940
 O        13.24470000      10.82630943      -8.22408866
 O        13.24470000      13.07817631      -5.29220381
 Ti       11.35260000       9.79822808      -4.56046344
 Ti       11.35260000      11.30921858      -1.92324409
 O        11.35260000      11.63804016      -3.82872307
 O        11.35260000       9.46940650      -2.65498445
 Ti       13.24470000      13.51946886      -1.04417097
 O        11.35260000      13.14903067      -1.19150372
 O        13.24470000      15.35928095      -0.31243060
 Ti       13.24470000       6.07698730      -8.07675591
 Ti       13.24470000       7.58797780      -5.43953656
 O        11.35260000       5.70654911      -8.22408866
 O        13.24470000       7.91679938      -7.34501555
 O        11.35260000       7.95841599      -5.29220381
 O        13.24470000       5.74816572      -6.17127693
 O        13.24470000       9.42778989      -4.70779619
 O        13.24470000      11.67965677      -1.77591134
 Ti       11.35260000       8.39970854      -1.04417097
 O        11.35260000      10.23952063      -0.31243060
 Ti       13.24470000       6.18945827      -1.92324409
 O        13.24470000       6.51827985      -3.82872307
 O        11.35260000       6.55989645      -1.77591134
 O        13.24470000       8.02927035      -1.19150372
 Ti       15.13680000       3.86673702      -8.95582903
 O        15.13680000       2.02692494      -9.68756940
 O        17.02890000       4.23717521      -8.80849628
 Ti       15.13680000       0.95722698      -8.07675591
 Ti       15.13680000       2.46821749      -5.43953656
 O        15.13680000       2.79703907      -7.34501555
 O        15.13680000       0.62840540      -6.17127693
 Ti       17.02890000       4.67846776      -4.56046344
 O        15.13680000       4.30802958      -4.70779619
 O        17.02890000       4.34964618      -2.65498445
 Ti       17.02890000      -1.25302329      -8.95582903
 O        15.13680000      -0.88258510      -8.80849628
 O        17.02890000      -3.09283538      -9.68756940
 O        17.02890000       0.58678880      -8.22408866
 O        17.02890000       2.83865568      -5.29220381
 Ti       15.13680000      -0.44129255      -4.56046344
 Ti       15.13680000       1.06969795      -1.92324409
 O        15.13680000       1.39851953      -3.82872307
 O        15.13680000      -0.77011413      -2.65498445
 Ti       17.02890000       3.27994823      -1.04417097
 O        15.13680000       2.90951004      -1.19150372
 O        17.02890000       5.11976032      -0.31243060
 Ti       17.02890000      16.31650793      -8.07675591
 Ti       17.02890000      -2.65154283      -5.43953656
 O        15.13680000      15.94606974      -8.22408866
 O        17.02890000      -2.32272125      -7.34501555
 O        15.13680000      -2.28110464      -5.29220381
 O        17.02890000      15.98768635      -6.17127693
 O        17.02890000      -0.81173074      -4.70779619
 O        17.02890000       1.44013614      -1.77591134
 Ti       15.13680000      -1.83981209      -1.04417097
 O        15.13680000       0.00000000      -0.31243060
 Ti       17.02890000      -4.05006236      -1.92324409
 O        17.02890000      -3.72124078      -3.82872307
 O        15.13680000      -3.67962418      -1.77591134
 O        17.02890000      -2.21025028      -1.19150372
 Ti       15.13680000      14.10625765      -8.95582903
 O        15.13680000      12.26644557      -9.68756940
 O        17.02890000      14.47669584      -8.80849628
 Ti       15.13680000      11.19674761      -8.07675591
 Ti       15.13680000      12.70773812      -5.43953656
 O        15.13680000      13.03655970      -7.34501555
 O        15.13680000      10.86792603      -6.17127693
 Ti       17.02890000      14.91798839      -4.56046344
 O        15.13680000      14.54755021      -4.70779619
 O        17.02890000      14.58916681      -2.65498445
 Ti       17.02890000       8.98649734      -8.95582903
 O        15.13680000       9.35693553      -8.80849628
 O        17.02890000       7.14668525      -9.68756940
 O        17.02890000      10.82630943      -8.22408866
 O        17.02890000      13.07817631      -5.29220381
 Ti       15.13680000       9.79822808      -4.56046344
 Ti       15.13680000      11.30921858      -1.92324409
 O        15.13680000      11.63804016      -3.82872307
 O        15.13680000       9.46940650      -2.65498445
 Ti       17.02890000      13.51946886      -1.04417097
 O        15.13680000      13.14903067      -1.19150372
 O        17.02890000      15.35928095      -0.31243060
 Ti       17.02890000       6.07698730      -8.07675591
 Ti       17.02890000       7.58797780      -5.43953656
 O        15.13680000       5.70654911      -8.22408866
 O        17.02890000       7.91679938      -7.34501555
 O        15.13680000       7.95841599      -5.29220381
 O        17.02890000       5.74816572      -6.17127693
 O        17.02890000       9.42778989      -4.70779619
 O        17.02890000      11.67965677      -1.77591134
 Ti       15.13680000       8.39970854      -1.04417097
 O        15.13680000      10.23952063      -0.31243060
 Ti       17.02890000       6.18945827      -1.92324409
 O        17.02890000       6.51827985      -3.82872307
 O        15.13680000       6.55989645      -1.77591134
 O        17.02890000       8.02927035      -1.19150372
 Ti       18.92100000       3.86673702      -8.95582903
 O        18.92100000       2.02692494      -9.68756940
 O        20.81310000       4.23717521      -8.80849628
 Ti       18.92100000       0.95722698      -8.07675591
 Ti       18.92100000       2.46821749      -5.43953656
 O        18.92100000       2.79703907      -7.34501555
 O        18.92100000       0.62840540      -6.17127693
 Ti       20.81310000       4.67846776      -4.56046344
 O        18.92100000       4.30802958      -4.70779619
 O        20.81310000       4.34964618      -2.65498445
 Ti       20.81310000      -1.25302329      -8.95582903
 O        18.92100000      -0.88258510      -8.80849628
 O        20.81310000      -3.09283538      -9.68756940
 O        20.81310000       0.58678880      -8.22408866
 O        20.81310000       2.83865568      -5.29220381
 Ti       18.92100000      -0.44129255      -4.56046344
 Ti       18.92100000       1.06969795      -1.92324409
 O        18.92100000       1.39851953      -3.82872307
 O        18.92100000      -0.77011413      -2.65498445
 Ti       20.81310000       3.27994823      -1.04417097
 O        18.92100000       2.90951004      -1.19150372
 O        20.81310000       5.11976032      -0.31243060
 Ti       20.81310000      16.31650793      -8.07675591
 Ti       20.81310000      -2.65154283      -5.43953656
 O        18.92100000      15.94606974      -8.22408866
 O        20.81310000      -2.32272125      -7.34501555
 O        18.92100000      -2.28110464      -5.29220381
 O        20.81310000      15.98768635      -6.17127693
 O        20.81310000      -0.81173074      -4.70779619
 O        20.81310000       1.44013614      -1.77591134
 Ti       18.92100000      -1.83981209      -1.04417097
 O        18.92100000       0.00000000      -0.31243060
 Ti       20.81310000      -4.05006236      -1.92324409
 O        20.81310000      -3.72124078      -3.82872307
 O        18.92100000      -3.67962418      -1.77591134
 O        20.81310000      -2.21025028      -1.19150372
 Ti       18.92100000      14.10625765      -8.95582903
 O        18.92100000      12.26644557      -9.68756940
 O        20.81310000      14.47669584      -8.80849628
 Ti       18.92100000      11.19674761      -8.07675591
 Ti       18.92100000      12.70773812      -5.43953656
 O        18.92100000      13.03655970      -7.34501555
 O        18.92100000      10.86792603      -6.17127693
 Ti       20.81310000      14.91798839      -4.56046344
 O        18.92100000      14.54755021      -4.70779619
 O        20.81310000      14.58916681      -2.65498445
 Ti       20.81310000       8.98649734      -8.95582903
 O        18.92100000       9.35693553      -8.80849628
 O        20.81310000       7.14668525      -9.68756940
 O        20.81310000      10.82630943      -8.22408866
 O        20.81310000      13.07817631      -5.29220381
 Ti       18.92100000       9.79822808      -4.56046344
 Ti       18.92100000      11.30921858      -1.92324409
 O        18.92100000      11.63804016      -3.82872307
 O        18.92100000       9.46940650      -2.65498445
 Ti       20.81310000      13.51946886      -1.04417097
 O        18.92100000      13.14903067      -1.19150372
 O        20.81310000      15.35928095      -0.31243060
 Ti       20.81310000       6.07698730      -8.07675591
 Ti       20.81310000       7.58797780      -5.43953656
 O        18.92100000       5.70654911      -8.22408866
 O        20.81310000       7.91679938      -7.34501555
 O        18.92100000       7.95841599      -5.29220381
 O        20.81310000       5.74816572      -6.17127693
 O        20.81310000       9.42778989      -4.70779619
 O        20.81310000      11.67965677      -1.77591134
 Ti       18.92100000       8.39970854      -1.04417097
 O        18.92100000      10.23952063      -0.31243060
 Ti       20.81310000       6.18945827      -1.92324409
 O        20.81310000       6.51827985      -3.82872307
 O        18.92100000       6.55989645      -1.77591134
 O        20.81310000       8.02927035      -1.19150372
