  133
Si  H 
 Si       -9.66650325       1.93330065       2.73410000
 Si       -7.73320260       3.86660130       5.46820000
 Si       -9.66650325      -1.93330065       2.73410000
 Si       -9.66650325       0.00000000       4.10115000
 Si       -7.73320260       0.00000000       5.46820000
 Si       -7.73320260      -3.86660130       5.46820000
 Si       -7.73320260       5.79990195       1.36705000
 Si       -5.79990195       5.79990195       2.73410000
 Si       -5.79990195       7.73320260       4.10115000
 Si       -3.86660130       7.73320260       5.46820000
 Si       -7.73320260       1.93330065       1.36705000
 Si       -5.79990195       1.93330065       2.73410000
 Si       -5.79990195       3.86660130       4.10115000
 Si       -3.86660130       3.86660130       5.46820000
 Si       -7.73320260      -1.93330065       1.36705000
 Si       -5.79990195      -1.93330065       2.73410000
 Si       -5.79990195       0.00000000       4.10115000
 Si       -3.86660130       0.00000000       5.46820000
 Si       -7.73320260      -5.79990195       1.36705000
 Si       -5.79990195      -5.79990195       2.73410000
 Si       -5.79990195      -3.86660130       4.10115000
 Si       -3.86660130      -3.86660130       5.46820000
 Si       -5.79990195      -7.73320260       4.10115000
 Si       -3.86660130      -7.73320260       5.46820000
 Si       -1.93330065       9.66650325       2.73410000
 Si       -3.86660130       5.79990195       1.36705000
 Si       -1.93330065       5.79990195       2.73410000
 Si       -1.93330065       7.73320260       4.10115000
 Si        0.00000000       7.73320260       5.46820000
 Si       -3.86660130       1.93330065       1.36705000
 Si       -1.93330065       1.93330065       2.73410000
 Si       -1.93330065       3.86660130       4.10115000
 Si        0.00000000       3.86660130       5.46820000
 Si       -3.86660130      -1.93330065       1.36705000
 Si       -1.93330065      -1.93330065       2.73410000
 Si       -1.93330065       0.00000000       4.10115000
 Si        0.00000000       0.00000000       5.46820000
 Si       -3.86660130      -5.79990195       1.36705000
 Si       -1.93330065      -5.79990195       2.73410000
 Si       -1.93330065      -3.86660130       4.10115000
 Si        0.00000000      -3.86660130       5.46820000
 Si       -1.93330065      -9.66650325       2.73410000
 Si       -1.93330065      -7.73320260       4.10115000
 Si        0.00000000      -7.73320260       5.46820000
 Si        0.00000000       9.66650325       1.36705000
 Si        1.93330065       9.66650325       2.73410000
 Si        0.00000000       5.79990195       1.36705000
 Si        1.93330065       5.79990195       2.73410000
 Si        1.93330065       7.73320260       4.10115000
 Si        3.86660130       7.73320260       5.46820000
 Si        0.00000000       1.93330065       1.36705000
 Si        1.93330065       1.93330065       2.73410000
 Si        1.93330065       3.86660130       4.10115000
 Si        3.86660130       3.86660130       5.46820000
 Si        0.00000000      -1.93330065       1.36705000
 Si        1.93330065      -1.93330065       2.73410000
 Si        1.93330065      -0.00000000       4.10115000
 Si        3.86660130      -0.00000000       5.46820000
 Si        0.00000000      -5.79990195       1.36705000
 Si        1.93330065      -5.79990195       2.73410000
 Si        1.93330065      -3.86660130       4.10115000
 Si        3.86660130      -3.86660130       5.46820000
 Si        0.00000000      -9.66650325       1.36705000
 Si        1.93330065      -9.66650325       2.73410000
 Si        1.93330065      -7.73320260       4.10115000
 Si        3.86660130      -7.73320260       5.46820000
 Si        3.86660130       5.79990195       1.36705000
 Si        5.79990195       5.79990195       2.73410000
 Si        5.79990195       7.73320260       4.10115000
 Si        3.86660130       1.93330065       1.36705000
 Si        5.79990195       1.93330065       2.73410000
 Si        5.79990195       3.86660130       4.10115000
 Si        7.73320260       3.86660130       5.46820000
 Si        3.86660130      -1.93330065       1.36705000
 Si        5.79990195      -1.93330065       2.73410000
 Si        5.79990195      -0.00000000       4.10115000
 Si        7.73320260      -0.00000000       5.46820000
 Si        3.86660130      -5.79990195       1.36705000
 Si        5.79990195      -5.79990195       2.73410000
 Si        5.79990195      -3.86660130       4.10115000
 Si        7.73320260      -3.86660130       5.46820000
 Si        5.79990195      -7.73320260       4.10115000
 Si        7.73320260       5.79990195       1.36705000
 Si        7.73320260       1.93330065       1.36705000
 Si        9.66650325       1.93330065       2.73410000
 Si        7.73320260      -1.93330065       1.36705000
 Si        9.66650325      -1.93330065       2.73410000
 Si        9.66650325      -0.00000000       4.10115000
 Si        7.73320260      -5.79990195       1.36705000
 H       -10.89124812       1.93330065       1.86807460
 H        -9.66650325       3.15804552       3.60012540
 H        -8.95794747       3.86660130       4.60217460
 H       -10.89124812      -1.93330065       1.86807460
 H        -9.66650325      -3.15804552       3.60012540
 H       -10.89124812       0.00000000       4.96717540
 H        -8.95794747      -3.86660130       4.60217460
 H        -8.95794747       5.79990195       2.23307540
 H        -7.73320260       7.02464682       0.50102460
 H        -7.02464682       7.73320260       4.96717540
 H        -5.79990195       8.95794747       3.23512460
 H        -3.86660130       8.95794747       6.33422540
 H        -8.95794747      -5.79990195       2.23307540
 H        -7.73320260      -7.02464682       0.50102460
 H        -7.02464682      -7.73320260       4.96717540
 H        -5.79990195      -8.95794747       3.23512460
 H        -3.86660130      -8.95794747       6.33422540
 H        -3.15804552       9.66650325       1.86807460
 H        -1.93330065      10.89124812       3.60012540
 H        -3.15804552      -9.66650325       1.86807460
 H        -1.93330065     -10.89124812       3.60012540
 H         0.00000000      10.89124812       0.50102460
 H         3.15804552       9.66650325       1.86807460
 H         1.93330065      10.89124812       3.60012540
 H         3.86660130       8.95794747       6.33422540
 H         0.00000000     -10.89124812       0.50102460
 H         3.15804552      -9.66650325       1.86807460
 H         1.93330065     -10.89124812       3.60012540
 H         3.86660130      -8.95794747       6.33422540
 H         7.02464682       7.73320260       4.96717540
 H         5.79990195       8.95794747       3.23512460
 H         8.95794747       3.86660130       4.60217460
 H         8.95794747      -3.86660130       4.60217460
 H         7.02464682      -7.73320260       4.96717540
 H         5.79990195      -8.95794747       3.23512460
 H         8.95794747       5.79990195       2.23307540
 H         7.73320260       7.02464682       0.50102460
 H        10.89124812       1.93330065       1.86807460
 H         9.66650325       3.15804552       3.60012540
 H        10.89124812      -1.93330065       1.86807460
 H         9.66650325      -3.15804552       3.60012540
 H        10.89124812      -0.00000000       4.96717540
 H         8.95794747      -5.79990195       2.23307540
 H         7.73320260      -7.02464682       0.50102460