  212
Si  H 
 Si       -5.79990195       7.81334156       0.39463334
 Si       -7.73320260       4.46476660       0.39463334
 Si       -9.66650325       1.11619165       0.39463334
 Si       -1.93330065       7.81334156       0.39463334
 Si       -3.86660130       4.46476660       0.39463334
 Si       -3.86660130       6.69714991       3.55170008
 Si       -3.86660130       8.92953321       6.70876683
 Si       -5.79990195       1.11619165       0.39463334
 Si       -5.79990195       3.34857495       3.55170008
 Si       -5.79990195       5.58095825       6.70876683
 Si       -5.79990195       7.81334156       2.76243340
 Si       -7.73320260      -2.23238330       0.39463334
 Si       -7.73320260      -0.00000000       3.55170008
 Si       -7.73320260       2.23238330       6.70876683
 Si       -7.73320260       4.46476660       2.76243340
 Si       -9.66650325      -1.11619165       6.70876683
 Si       -9.66650325       1.11619165       2.76243340
 Si        1.93330065       7.81334156       0.39463334
 Si       -0.00000000       4.46476660       0.39463334
 Si       -0.00000000       6.69714991       3.55170008
 Si       -0.00000000       8.92953321       6.70876683
 Si       -1.93330065       1.11619165       0.39463334
 Si       -1.93330065       3.34857495       3.55170008
 Si       -1.93330065       5.58095825       6.70876683
 Si       -1.93330065       7.81334156       2.76243340
 Si       -3.86660130      -2.23238330       0.39463334
 Si       -3.86660130      -0.00000000       3.55170008
 Si       -3.86660130       2.23238330       6.70876683
 Si       -3.86660130       4.46476660       2.76243340
 Si       -3.86660130       6.69714991       5.91950014
 Si       -3.86660130       8.92953321       9.07656688
 Si       -5.79990195      -5.58095825       0.39463334
 Si       -5.79990195      -3.34857495       3.55170008
 Si       -5.79990195      -1.11619165       6.70876683
 Si       -5.79990195       1.11619165       2.76243340
 Si       -5.79990195       3.34857495       5.91950014
 Si       -5.79990195       5.58095825       9.07656688
 Si       -7.73320260      -4.46476660       6.70876683
 Si       -7.73320260      -2.23238330       2.76243340
 Si       -7.73320260      -0.00000000       5.91950014
 Si       -7.73320260       2.23238330       9.07656688
 Si       -9.66650325      -1.11619165       9.07656688
 Si        5.79990195       7.81334156       0.39463334
 Si        3.86660130       4.46476660       0.39463334
 Si        3.86660130       6.69714991       3.55170008
 Si        3.86660130       8.92953321       6.70876683
 Si        1.93330065       1.11619165       0.39463334
 Si        1.93330065       3.34857495       3.55170008
 Si        1.93330065       5.58095825       6.70876683
 Si        1.93330065       7.81334156       2.76243340
 Si       -0.00000000      -2.23238330       0.39463334
 Si       -0.00000000      -0.00000000       3.55170008
 Si       -0.00000000       2.23238330       6.70876683
 Si       -0.00000000       4.46476660       2.76243340
 Si       -0.00000000       6.69714991       5.91950014
 Si       -0.00000000       8.92953321       9.07656688
 Si       -1.93330065      -5.58095825       0.39463334
 Si       -1.93330065      -3.34857495       3.55170008
 Si       -1.93330065      -1.11619165       6.70876683
 Si       -1.93330065       1.11619165       2.76243340
 Si       -1.93330065       3.34857495       5.91950014
 Si       -1.93330065       5.58095825       9.07656688
 Si       -3.86660130      -8.92953321       0.39463334
 Si       -3.86660130      -6.69714991       3.55170008
 Si       -3.86660130      -4.46476660       6.70876683
 Si       -3.86660130      -2.23238330       2.76243340
 Si       -3.86660130      -0.00000000       5.91950014
 Si       -3.86660130       2.23238330       9.07656688
 Si       -5.79990195      -7.81334156       6.70876683
 Si       -5.79990195      -5.58095825       2.76243340
 Si       -5.79990195      -3.34857495       5.91950014
 Si       -5.79990195      -1.11619165       9.07656688
 Si       -7.73320260      -4.46476660       9.07656688
 Si        7.73320260       4.46476660       0.39463334
 Si        5.79990195       1.11619165       0.39463334
 Si        5.79990195       3.34857495       3.55170008
 Si        5.79990195       5.58095825       6.70876683
 Si        5.79990195       7.81334156       2.76243340
 Si        3.86660130      -2.23238330       0.39463334
 Si        3.86660130      -0.00000000       3.55170008
 Si        3.86660130       2.23238330       6.70876683
 Si        3.86660130       4.46476660       2.76243340
 Si        3.86660130       6.69714991       5.91950014
 Si        3.86660130       8.92953321       9.07656688
 Si        1.93330065      -5.58095825       0.39463334
 Si        1.93330065      -3.34857495       3.55170008
 Si        1.93330065      -1.11619165       6.70876683
 Si        1.93330065       1.11619165       2.76243340
 Si        1.93330065       3.34857495       5.91950014
 Si        1.93330065       5.58095825       9.07656688
 Si       -0.00000000      -8.92953321       0.39463334
 Si       -0.00000000      -6.69714991       3.55170008
 Si       -0.00000000      -4.46476660       6.70876683
 Si       -0.00000000      -2.23238330       2.76243340
 Si       -0.00000000      -0.00000000       5.91950014
 Si       -0.00000000       2.23238330       9.07656688
 Si       -1.93330065      -7.81334156       6.70876683
 Si       -1.93330065      -5.58095825       2.76243340
 Si       -1.93330065      -3.34857495       5.91950014
 Si       -1.93330065      -1.11619165       9.07656688
 Si       -3.86660130      -8.92953321       2.76243340
 Si       -3.86660130      -6.69714991       5.91950014
 Si       -3.86660130      -4.46476660       9.07656688
 Si       -5.79990195      -7.81334156       9.07656688
 Si        9.66650325       1.11619165       0.39463334
 Si        7.73320260      -2.23238330       0.39463334
 Si        7.73320260      -0.00000000       3.55170008
 Si        7.73320260       2.23238330       6.70876683
 Si        7.73320260       4.46476660       2.76243340
 Si        5.79990195      -5.58095825       0.39463334
 Si        5.79990195      -3.34857495       3.55170008
 Si        5.79990195      -1.11619165       6.70876683
 Si        5.79990195       1.11619165       2.76243340
 Si        5.79990195       3.34857495       5.91950014
 Si        5.79990195       5.58095825       9.07656688
 Si        3.86660130      -8.92953321       0.39463334
 Si        3.86660130      -6.69714991       3.55170008
 Si        3.86660130      -4.46476660       6.70876683
 Si        3.86660130      -2.23238330       2.76243340
 Si        3.86660130      -0.00000000       5.91950014
 Si        3.86660130       2.23238330       9.07656688
 Si        1.93330065      -7.81334156       6.70876683
 Si        1.93330065      -5.58095825       2.76243340
 Si        1.93330065      -3.34857495       5.91950014
 Si        1.93330065      -1.11619165       9.07656688
 Si       -0.00000000      -8.92953321       2.76243340
 Si       -0.00000000      -6.69714991       5.91950014
 Si       -0.00000000      -4.46476660       9.07656688
 Si       -1.93330065      -7.81334156       9.07656688
 Si        9.66650325      -1.11619165       6.70876683
 Si        9.66650325       1.11619165       2.76243340
 Si        7.73320260      -4.46476660       6.70876683
 Si        7.73320260      -2.23238330       2.76243340
 Si        7.73320260      -0.00000000       5.91950014
 Si        7.73320260       2.23238330       9.07656688
 Si        5.79990195      -7.81334156       6.70876683
 Si        5.79990195      -5.58095825       2.76243340
 Si        5.79990195      -3.34857495       5.91950014
 Si        5.79990195      -1.11619165       9.07656688
 Si        3.86660130      -8.92953321       2.76243340
 Si        3.86660130      -6.69714991       5.91950014
 Si        3.86660130      -4.46476660       9.07656688
 Si        1.93330065      -7.81334156       9.07656688
 Si        9.66650325      -1.11619165       9.07656688
 Si        7.73320260      -4.46476660       9.07656688
 Si        5.79990195      -7.81334156       9.07656688
 H        -7.02464682       8.52044834      -0.10536666
 H        -8.95794747       5.17187339      -0.10536666
 H       -10.89124812       1.82329843      -0.10536666
 H        -5.09134617       9.63663999       6.20876683
 H        -2.64185643       9.63663999       6.20876683
 H        -7.02464682       6.28806504       6.20876683
 H        -5.79990195       9.22755512       3.26243340
 H        -7.02464682       7.10623478       3.26243340
 H        -8.95794747       2.93949008       6.20876683
 H        -7.73320260       5.87898017       3.26243340
 H        -8.95794747       3.75765982       3.26243340
 H       -10.89124812      -0.40908487       6.20876683
 H        -9.66650325      -2.53040521       6.20876683
 H        -9.66650325       2.53040521       3.26243340
 H       -10.89124812       0.40908487       3.26243340
 H        -1.22474487       9.63663999       6.20876683
 H         1.22474487       9.63663999       6.20876683
 H        -1.93330065       9.22755512       3.26243340
 H        -3.86660130      10.34374677       9.57656688
 H        -8.95794747      -3.75765982       6.20876683
 H        -7.73320260      -5.87898017       6.20876683
 H        -8.95794747      -2.93949008       3.26243340
 H       -10.89124812      -1.82329843       9.57656688
 H         7.02464682       8.52044834      -0.10536666
 H         2.64185643       9.63663999       6.20876683
 H         5.09134617       9.63663999       6.20876683
 H         1.93330065       9.22755512       3.26243340
 H        -0.00000000      10.34374677       9.57656688
 H        -3.86660130     -10.34374677      -0.10536666
 H        -7.02464682      -7.10623478       6.20876683
 H        -5.79990195      -9.22755512       6.20876683
 H        -7.02464682      -6.28806504       3.26243340
 H        -8.95794747      -5.17187339       9.57656688
 H         8.95794747       5.17187339      -0.10536666
 H         7.02464682       6.28806504       6.20876683
 H         7.02464682       7.10623478       3.26243340
 H         5.79990195       9.22755512       3.26243340
 H         3.86660130      10.34374677       9.57656688
 H        -0.00000000     -10.34374677      -0.10536666
 H        -1.93330065      -9.22755512       6.20876683
 H        -2.64185643      -9.63663999       3.26243340
 H        -5.09134617      -9.63663999       3.26243340
 H        -7.02464682      -8.52044834       9.57656688
 H        10.89124812       1.82329843      -0.10536666
 H         8.95794747       2.93949008       6.20876683
 H         8.95794747       3.75765982       3.26243340
 H         7.73320260       5.87898017       3.26243340
 H         3.86660130     -10.34374677      -0.10536666
 H         1.93330065      -9.22755512       6.20876683
 H         1.22474487      -9.63663999       3.26243340
 H        -1.22474487      -9.63663999       3.26243340
 H         9.66650325      -2.53040521       6.20876683
 H        10.89124812      -0.40908487       6.20876683
 H        10.89124812       0.40908487       3.26243340
 H         9.66650325       2.53040521       3.26243340
 H         7.73320260      -5.87898017       6.20876683
 H         8.95794747      -3.75765982       6.20876683
 H         8.95794747      -2.93949008       3.26243340
 H         5.79990195      -9.22755512       6.20876683
 H         7.02464682      -7.10623478       6.20876683
 H         7.02464682      -6.28806504       3.26243340
 H         5.09134617      -9.63663999       3.26243340
 H         2.64185643      -9.63663999       3.26243340
 H        10.89124812      -1.82329843       9.57656688
 H         8.95794747      -5.17187339       9.57656688
 H         7.02464682      -8.52044834       9.57656688